OPT_V10/Two_days_MYC3_SOS/powerflow_results_t39.txt
Pandapower Network Debug Info
==================================================

BUS:
       vm_pu  va_degree      p_mw    q_mvar
0   0.994881   0.260316 -0.000156  0.001194
1   0.991689   0.417489  0.000257  0.002200
2   0.988617   0.553585  0.000838  0.003228
3   0.991811   0.405139  0.001022  0.004532
4   0.999891   0.001324  0.010059  0.011185
5   0.999878   0.001400  0.008458  0.008237
6   0.999867   0.001462  0.012642  0.012069
7   0.999934   0.001005  0.000000  0.000000
8   0.999934   0.001012  0.000000  0.000000
9   1.000000   0.000000 -0.033248 -0.047730
10  1.000000   0.000007  0.000000  0.000000
--------------------------------------------------

LINE:
   p_from_mw  q_from_mvar   p_to_mw  q_to_mvar         pl_mw       ql_mvar  i_from_ka   i_to_ka      i_ka  vm_from_pu  va_from_degree  vm_to_pu  va_to_degree  loading_percent
0   0.033238     0.043730 -0.033235  -0.043728  2.951166e-06  2.301072e-06   0.002114  0.002114  0.002114    1.000000        0.000007  0.999934      0.001005         0.919217
1   0.031161     0.031492 -0.031159  -0.031491  1.517973e-06  1.183589e-06   0.001705  0.001705  0.001705    0.999934        0.001005  0.999891      0.001324         0.741452
2   0.002065     0.011236 -0.002004  -0.011188  6.104870e-05  4.760068e-05   0.016490  0.016490  0.016490    0.999934        0.001012  0.994881      0.260316         7.169626
3  -0.021100    -0.020306  0.021101   0.020306  2.966357e-07  2.312918e-07   0.001127  0.001127  0.001127    0.999878        0.001400  0.999891      0.001324         0.490123
4  -0.012642    -0.012069  0.012643   0.012070  1.494493e-07  1.165281e-07   0.000673  0.000673  0.000673    0.999867        0.001462  0.999878      0.001400         0.292539
5  -0.001105    -0.005436  0.001123   0.005450  1.851047e-05  1.443292e-05   0.008074  0.008074  0.008074    0.991689        0.417489  0.994881      0.260316         3.510242
6  -0.001022    -0.004532  0.001036   0.004543  1.464925e-05  1.142226e-05   0.006761  0.006761  0.006761    0.991811        0.405139  0.994881      0.260316         2.939501
7  -0.000838    -0.003228  0.000848   0.003236  1.029077e-05  8.023884e-06   0.004868  0.004868  0.004868    0.988617        0.553585  0.991689      0.417489         2.116648
--------------------------------------------------

TRAFO:
    p_hv_mw  q_hv_mvar   p_lv_mw  q_lv_mvar    pl_mw  ql_mvar   i_hv_ka   i_lv_ka  vm_hv_pu  va_hv_degree  vm_lv_pu  va_lv_degree  loading_percent
0  0.002075   0.012236 -0.002065  -0.011236  0.00001    0.001  0.000478  0.016490  0.999934      0.001005  0.999934      0.001012         0.124111
1  0.033248   0.047730 -0.033238  -0.043730  0.00001    0.004  0.000480  0.002114  1.000000      0.000000  1.000000      0.000007         0.145423
--------------------------------------------------
